
This summary file was generated by TurbSim (v1.06.00, 21-Sep-2012) on 23-Feb-2017 at 18:41:41.


Runtime Options:

 455207201  Random seed #1
    RANLUX  Type of random number generator
         F  Output binary HH turbulence parameters?
         T  Output formatted turbulence parameters?
         F  Output AeroDyn HH files?
         T  Output AeroDyn FF files?
         T  Output BLADED FF files?
         F  Output tower data?
         T  Output formatted FF files?
         T  Output coherent turbulence time step file?
         T  Clockwise rotation when looking downwind?
 0 -  NONE  IEC turbulence models scaled to exact specified standard deviation


Turbine/Model Specifications:

        13  Vertical grid-point matrix dimension
        13  Horizontal grid-point matrix dimension
     0.050  Time step [seconds]
   600.000  Analysis time [seconds]
   100.000  Usable output time [seconds]
    87.600  Hub height [m]
   175.200  Grid height [m]
   175.200  Grid width [m]
     0.000  Vertical flow angle [degrees]
     0.000  Horizontal flow angle [degrees]


Meteorological Boundary Conditions:

    IECKAI  IEC Kaimal spectral model
         1  IEC standard: IEC 61400-1 Ed. 3: 2005
     5.970  Percent turbulence intensity, IEC 61400-1 Ed. 3: 2005
       NTM  IEC Normal Turbulence Model
       N/A  IEC Extreme Turbulence Model (ETM) "c" parameter [m/s]
       IEC  Wind profile type
    84.288  Reference height [m]
     5.760  Reference wind speed [m/s]
       N/A  Jet height [m]
     0.200  Power law exponent
     0.030  Surface roughness length [m]


Coherent turbulence time step files are not available for IEC or TIDAL spectral models.

WARNING:   A coherent turbulence time step file cannot be generated with the IECKAI model.



You have requested that the following file(s) be generated:

   /home/sebasanper/PycharmProjects/owf_MDAO/aero_loads_models/turbsim_test_run/TurbSim.dat (formatted turbulence-parameter file)
   /home/sebasanper/PycharmProjects/owf_MDAO/aero_loads_models/turbsim_test_run/TurbSim.bts (AeroDyn/TurbSim full-field wind file)
   /home/sebasanper/PycharmProjects/owf_MDAO/aero_loads_models/turbsim_test_run/TurbSim.wnd (AeroDyn/BLADED full-field wnd file)
   /home/sebasanper/PycharmProjects/owf_MDAO/aero_loads_models/turbsim_test_run/TurbSim.u (formatted full-field U-component file)
   /home/sebasanper/PycharmProjects/owf_MDAO/aero_loads_models/turbsim_test_run/TurbSim.v (formatted full-field V-component file)
   /home/sebasanper/PycharmProjects/owf_MDAO/aero_loads_models/turbsim_test_run/TurbSim.w (formatted full-field W-component file)


Turbulence Simulation Scaling Parameter Summary:

   Turbulence model used                            =  IEC Kaimal
   Turbulence characteristic                        =  User-specified
   IEC standard                                     =  IEC 61400-1 Ed. 3: 2005
   Mean wind speed at hub height                    =    5.806 m/s
   Characteristic value of standard deviation       =    0.347 m/s
   Turbulence scale                                 =   42.000 m
   u-component integral scale                       =  340.200 m
   Coherency scale                                  =  340.200 m
   Characteristic value of hub turbulence intensity =    5.970%
   Gradient Richardson number                       =    0.000

   Wind profile type                                =  Power law on rotor disk, logarithmic elsewhere
   Power law exponent                               =    0.200
   Mean shear across rotor disk                     =    0.027 (m/s)/m
   Assumed rotor diameter                           =  175.200 m
   Surface roughness length                         =    0.030 m

   Number of time steps in the FFT                  =    12000
   Number of time steps output                      =     2604


Mean Flow Angles:

   Vertical   =   0.0 degrees
   Horizontal =   0.0 degrees

Mean Wind Speed Profile:

   Height    Wind Speed   Horizontal Angle  U-comp (X)   V-comp (Y)   W-comp (Z)
     (m)        (m/s)         (degrees)       (m/s)        (m/s)        (m/s)   
   ------    ----------   ----------------  ----------   ----------   ----------
    175.3        6.31            0.00          6.31         0.00         0.00
    160.7        6.55            0.00          6.55         0.00         0.00
    146.1        6.43            0.00          6.43         0.00         0.00
    131.5        6.30            0.00          6.30         0.00         0.00
    116.9        6.15            0.00          6.15         0.00         0.00
    102.3        5.99            0.00          5.99         0.00         0.00
     87.7        5.81            0.00          5.81         0.00         0.00
     73.1        5.60            0.00          5.60         0.00         0.00
     58.5        5.35            0.00          5.35         0.00         0.00
     43.9        5.06            0.00          5.06         0.00         0.00
     29.3        4.66            0.00          4.66         0.00         0.00
     14.7        4.06            0.00          4.06         0.00         0.00
      0.1        1.50            0.00          1.50         0.00         0.00


Harvested Random Seeds after Generation of the Random Numbers:

     28265250 K1
            0 K2


Hub-Height Simulated Turbulence Statistical Summary:

   Type of Wind        Min (m/s)   Mean (m/s)    Max (m/s)  Sigma (m/s)       TI (%)
   ----------------    ---------   ----------    ---------  -----------       ------
   Longitudinal (u)         4.80         5.81         7.13        0.368        6.345
   Lateral (v)             -0.85         0.00         0.74        0.267        4.604
   Vertical (w)            -0.57         0.00         0.58        0.170        2.927
   U component              4.80         5.81         7.13        0.368        6.345
   V component             -0.85         0.00         0.74        0.267        4.604
   W component             -0.57         0.00         0.58        0.170        2.927
   Horizontal (U&V)         4.81         5.81         7.14        0.369        6.347
   Total                    4.82         5.81         7.14        0.369        6.342

                       Min Reynolds     Mean Reynolds    Max Reynolds    Correlation
   Product             Stress (m/s)^2   Stress (m/s)^2   Stress (m/s)^2  Coefficient
   ----------------    --------------   --------------   --------------  -----------
   u'w'                     -0.419             0.005             0.340         0.083
   u'v'                     -0.413             0.005             0.534         0.055
   v'w'                     -0.240             0.001             0.365         0.032


   Friction Velocity (Ustar)  =      0.072 m/s
   Maximum Instantaneous TKE  =      0.892 (m/s)^2
   Maximum Instantaneous CTKE =      0.316 (m/s)^2


Grid Point Variance Summary:

   Y-coord  -87.60  -73.00  -58.40  -43.80  -29.20  -14.60    0.00   14.60   29.20   43.80   58.40   73.00   87.60

   Height   Standard deviation at grid points for the u component:
   175.30    0.321   0.315   0.290   0.302   0.273   0.297   0.241   0.265   0.253   0.261   0.264   0.267   0.294
   160.70    0.319   0.330   0.332   0.365   0.298   0.318   0.295   0.252   0.263   0.280   0.282   0.240   0.275
   146.10    0.307   0.324   0.324   0.355   0.343   0.315   0.283   0.274   0.275   0.297   0.316   0.283   0.261
   131.50    0.283   0.299   0.293   0.316   0.348   0.326   0.300   0.268   0.267   0.279   0.260   0.258   0.312
   116.90    0.335   0.323   0.336   0.333   0.333   0.317   0.311   0.296   0.305   0.277   0.243   0.284   0.322
   102.30    0.350   0.319   0.353   0.345   0.338   0.300   0.324   0.317   0.321   0.282   0.298   0.284   0.314
    87.70    0.334   0.326   0.312   0.305   0.328   0.347   0.368   0.369   0.299   0.296   0.293   0.325   0.313
    73.10    0.339   0.333   0.289   0.328   0.346   0.377   0.359   0.361   0.303   0.300   0.340   0.338   0.335
    58.50    0.287   0.284   0.276   0.314   0.325   0.389   0.412   0.410   0.365   0.419   0.378   0.357   0.338
    43.90    0.272   0.276   0.296   0.338   0.376   0.352   0.391   0.424   0.387   0.414   0.402   0.365   0.362
    29.30    0.270   0.291   0.344   0.392   0.411   0.398   0.472   0.421   0.420   0.437   0.400   0.383   0.365
    14.70    0.300   0.324   0.325   0.355   0.378   0.384   0.456   0.462   0.492   0.456   0.414   0.381   0.352
     0.10    0.316   0.298   0.303   0.316   0.367   0.403   0.412   0.430   0.442   0.436   0.401   0.340   0.305

   Height   Standard deviation at grid points for the v component:
   175.30    0.267   0.267   0.267   0.267   0.267   0.267   0.267   0.267   0.267   0.267   0.267   0.267   0.267
   160.70    0.267   0.267   0.267   0.267   0.267   0.267   0.267   0.267   0.267   0.267   0.267   0.267   0.267
   146.10    0.267   0.267   0.267   0.267   0.267   0.267   0.267   0.267   0.267   0.267   0.267   0.267   0.267
   131.50    0.267   0.267   0.267   0.267   0.267   0.267   0.267   0.267   0.267   0.267   0.267   0.267   0.267
   116.90    0.267   0.267   0.267   0.267   0.267   0.267   0.267   0.267   0.267   0.267   0.267   0.267   0.267
   102.30    0.267   0.267   0.267   0.267   0.267   0.267   0.267   0.267   0.267   0.267   0.267   0.267   0.267
    87.70    0.267   0.267   0.267   0.267   0.267   0.267   0.267   0.267   0.267   0.267   0.267   0.267   0.267
    73.10    0.267   0.267   0.267   0.267   0.267   0.267   0.267   0.267   0.267   0.267   0.267   0.267   0.267
    58.50    0.267   0.267   0.267   0.267   0.267   0.267   0.267   0.267   0.267   0.267   0.267   0.267   0.267
    43.90    0.267   0.267   0.267   0.267   0.267   0.267   0.267   0.267   0.267   0.267   0.267   0.267   0.267
    29.30    0.267   0.267   0.267   0.267   0.267   0.267   0.267   0.267   0.267   0.267   0.267   0.267   0.267
    14.70    0.267   0.267   0.267   0.267   0.267   0.267   0.267   0.267   0.267   0.267   0.267   0.267   0.267
     0.10    0.267   0.267   0.267   0.267   0.267   0.267   0.267   0.267   0.267   0.267   0.267   0.267   0.267

   Height   Standard deviation at grid points for the w component:
   175.30    0.170   0.170   0.170   0.170   0.170   0.170   0.170   0.170   0.170   0.170   0.170   0.170   0.170
   160.70    0.170   0.170   0.170   0.170   0.170   0.170   0.170   0.170   0.170   0.170   0.170   0.170   0.170
   146.10    0.170   0.170   0.170   0.170   0.170   0.170   0.170   0.170   0.170   0.170   0.170   0.170   0.170
   131.50    0.170   0.170   0.170   0.170   0.170   0.170   0.170   0.170   0.170   0.170   0.170   0.170   0.170
   116.90    0.170   0.170   0.170   0.170   0.170   0.170   0.170   0.170   0.170   0.170   0.170   0.170   0.170
   102.30    0.170   0.170   0.170   0.170   0.170   0.170   0.170   0.170   0.170   0.170   0.170   0.170   0.170
    87.70    0.170   0.170   0.170   0.170   0.170   0.170   0.170   0.170   0.170   0.170   0.170   0.170   0.170
    73.10    0.170   0.170   0.170   0.170   0.170   0.170   0.170   0.170   0.170   0.170   0.170   0.170   0.170
    58.50    0.170   0.170   0.170   0.170   0.170   0.170   0.170   0.170   0.170   0.170   0.170   0.170   0.170
    43.90    0.170   0.170   0.170   0.170   0.170   0.170   0.170   0.170   0.170   0.170   0.170   0.170   0.170
    29.30    0.170   0.170   0.170   0.170   0.170   0.170   0.170   0.170   0.170   0.170   0.170   0.170   0.170
    14.70    0.170   0.170   0.170   0.170   0.170   0.170   0.170   0.170   0.170   0.170   0.170   0.170   0.170
     0.10    0.170   0.170   0.170   0.170   0.170   0.170   0.170   0.170   0.170   0.170   0.170   0.170   0.170

   Mean standard deviation across all grid points:
      u component:    0.332 m/s
      v component:    0.267 m/s
      w component:    0.170 m/s


U-component (X) statistics from the hub grid point:

   Mean =   5.8059 m/s
   TI   =   6.3449 %


Normalizing Parameters for Binary Data (approximate statistics):

   UBar  =   5.8059 m/s
   TI(u) =   6.3449 %
   TI(v) =   4.6044 %
   TI(w) =   2.9267 %

   Height Offset =  -0.0000 m
   Grid Base     =   0.1000 m

Nyquist frequency of turbulent wind field =        10.000 Hz


Processing complete.  12.964 CPU seconds used.
