
This summary file was generated by InflowWind v3.02.00a-bjj on 23-Feb-2017 at 18:41:54.

  WindType:   4

Bladed-style wind type.  Read by InflowWind sub-module IfW_BladedFFWind v1.01.00

     FileName:                    /home/sebasanper/PycharmProjects/owf_MDAO/aero_loads_models/turbsim_test_run/TurbSim.wnd
     Binary file format id:       -99
     Reference height (m):           87.60    
     Timestep (s):                  0.5000E-01
     Number of timesteps:                 2604
     Mean windspeed (m/s):           5.806    
     Characteristic TI:            [ 6.3449, 4.6044, 2.9267 ] 
     Windfile is periodic:        F
     Windfile includes tower:     F
     Time range (s):              [ -15.088 : 115.06 ]
     Y range (m):                 [ -87.6 : 87.6 ]
     Z range (m):                 [ -7.62939E-06 : 175.2 ]

This summary file was closed on 23-Feb-2017 at 18:41:54.

